---- qbsp / ericw-tools 2.0.0-alpha8-26-ged62ec10 ----

--- Options Summary ---
    "nocolor" was set to "1" (from command line)

Input file: C:\Users\401838\Documents\GitHub\Heaven-s-Defense\Heavens_Defense-compile.map
Output file: C:\Users\401838\Documents\GitHub\Heaven-s-Defense\Heavens_Defense.bsp

INFO: using built-in palette.
     2 entities
     7 unique textures
    57 texinfos
    86 unique planes

INFO: world extents calculated to 1385 units
     23 brushes
    130 sides
     41 side bevels

            0 texture frames added
WARNING: unable to find texture skip
Processing hull 0...
    22 SOLID brushes
     1 SKY brushes
    23 brushes total
    130 visible sides
INFO: calculating BSP for 23 brushes with 130 sides
     23 brushes
    130 visible faces
    82 nodes
    82 expensive split nodes
    83 leaves
    47 EMPTY leafs
    34 SOLID leafs
     2 SKY leafs
    83 leafs total
    15 max tree height
     9 avg tree height
    370 tree portals
WARNING: Reached occupant "info_player_start" at (-32 -16 40), no filling performed.
Leak file written to Heavens_Defense.pts
            6 portals written to Heavens_Defense.leak.prt
    370 tree portals
    148 sides visible
    148 makefaces
     52 merged
     31 subdivided
    9 nodes pruned
    47 EMPTY leafs
    25 SOLID leafs
     2 SKY leafs
    74 leafs total
    15 max tree height
     9 avg tree height
     69 edges added by tjunctions
    123 faces optimized through MWT
    316 triangles computed from MWT
     16 faces created via optimization of MWT triangles
    303 edges
    143 faces
Processing hull 1...
WARNING: Reached occupant "info_player_start" at (-32 -16 40), no filling performed.
Processing hull 2...
WARNING: worldspawn at 0 0 0 has long value for key wad (length 203 >= 127)
Writing Heavens_Defense.bsp as Quake BSP bsp29
Wrote Heavens_Defense.bsp

count   lump name    byte size 
      1 models               64
     95 planes             1900
    158 vertexes           1896
     73 nodes              1752
     41 texinfos           1640
    143 faces              2860
    382 clipnodes          3056
     50 leafs              1400
    173 marksurfaces        346
    304 edges              1216
    606 surfedges          2424
      7 textures         119952
        lightdata             0
        visdata               0
        entdata             319

0.028s seconds elapsed


